@<TRIPOS>MOLECULE
P0G
 53 55 0 0 0
SMALL
GASTEIGER

@<TRIPOS>ATOM
      1 C          -4.3710    2.2340   -0.8400 C.3     1  UNL1       -0.0395
      2 C          -2.2000    0.9620    0.2050 C.3     1  UNL1       -0.0467
      3 C          -2.5130   -1.4010    0.9540 C.3     1  UNL1       -0.0467
      4 O           4.9390    3.5000    0.1020 O.2     1  UNL1       -0.2717
      5 O           5.9770   -0.9990    1.6560 O.3     1  UNL1       -0.5048
      6 O           0.9240   -2.6030   -1.6800 O.3     1  UNL1       -0.3858
      7 C          -6.9980    0.6400    1.3530 C.ar    1  UNL1       -0.0615
      8 C          -6.6850   -0.7010    1.2300 C.ar    1  UNL1       -0.0615
      9 C          -6.2490    1.5900    0.6840 C.ar    1  UNL1       -0.0586
     10 C          -5.6200   -1.0910    0.4410 C.ar    1  UNL1       -0.0583
     11 C           4.1150   -2.2540    0.8670 C.ar    1  UNL1       -0.0178
     12 C           2.9300   -2.3150    0.1570 C.ar    1  UNL1       -0.0490
     13 C           2.9140    2.3760   -0.3630 C.3     1  UNL1        0.1656
     14 C          -0.0150   -0.8220   -0.3440 C.3     1  UNL1        0.0267
     15 C          -3.7010   -0.5670   -1.0800 C.3     1  UNL1       -0.0096
     16 N          -1.2750   -0.8940   -1.0970 N.3     1  UNL1       -0.3080
     17 N           5.0030    1.2990    0.4100 N.am    1  UNL1       -0.2769
     18 O           2.6540    1.1270   -1.0070 O.3     1  UNL1       -0.4804
     19 C           4.3570    2.4370    0.0720 C.2     1  UNL1        0.2550
     20 C          -5.1870    1.1980   -0.1100 C.ar    1  UNL1       -0.0472
     21 C           4.8120   -1.0580    0.9580 C.ar    1  UNL1        0.1416
     22 C          -4.8670   -0.1410   -0.2250 C.ar    1  UNL1       -0.0427
     23 C           2.4340   -1.1870   -0.4710 C.ar    1  UNL1        0.0258
     24 C           4.3140    0.0780    0.3330 C.ar    1  UNL1        0.1180
     25 C           3.1260    0.0100   -0.3900 C.ar    1  UNL1        0.1515
     26 C           1.1420   -1.2600   -1.2430 C.3     1  UNL1        0.0960
     27 C          -2.4110   -0.4790   -0.2630 C.3     1  UNL1        0.0176
     28 H          -3.5430    2.5560   -0.2080 H       1  UNL1        0.0278
     29 H          -3.9780    1.8030   -1.7610 H       1  UNL1        0.0278
     30 H          -5.0010    3.0910   -1.0790 H       1  UNL1        0.0278
     31 H          -2.1270    1.6190   -0.6620 H       1  UNL1        0.0247
     32 H          -3.0430    1.2700    0.8240 H       1  UNL1        0.0247
     33 H          -1.2810    1.0250    0.7870 H       1  UNL1        0.0247
     34 H          -3.3560   -1.0930    1.5720 H       1  UNL1        0.0247
     35 H          -2.6630   -2.4280    0.6200 H       1  UNL1        0.0247
     36 H          -1.5940   -1.3380    1.5360 H       1  UNL1        0.0247
     37 H           6.7640   -1.1870    1.1250 H       1  UNL1        0.2922
     38 H           0.8630   -3.2460   -0.9600 H       1  UNL1        0.2103
     39 H          -7.8310    0.9460    1.9700 H       1  UNL1        0.0618
     40 H          -7.2720   -1.4430    1.7510 H       1  UNL1        0.0618
     41 H          -6.4940    2.6370    0.7810 H       1  UNL1        0.0620
     42 H          -5.3740   -2.1390    0.3450 H       1  UNL1        0.0620
     43 H           4.4970   -3.1390    1.3550 H       1  UNL1        0.0655
     44 H           2.3890   -3.2470    0.0930 H       1  UNL1        0.0623
     45 H           2.7060    3.1920   -1.0550 H       1  UNL1        0.0795
     46 H           2.2750    2.4730    0.5150 H       1  UNL1        0.0795
     47 H           0.1510    0.2020   -0.0110 H       1  UNL1        0.0453
     48 H          -0.0720   -1.4810    0.5220 H       1  UNL1        0.0453
     49 H          -3.8510   -1.5940   -1.4130 H       1  UNL1        0.0331
     50 H          -3.6280    0.0900   -1.9470 H       1  UNL1        0.0331
     51 H          -1.2240   -0.3410   -1.9400 H       1  UNL1        0.1225
     52 H           5.9280    1.3260    0.7000 H       1  UNL1        0.1551
     53 H           1.1990   -0.6010   -2.1100 H       1  UNL1        0.0657
@<TRIPOS>BOND
     1     1    20    1
     2     1    28    1
     3     1    29    1
     4     1    30    1
     5     2    27    1
     6     2    31    1
     7     2    32    1
     8     2    33    1
     9     3    34    1
    10     3    35    1
    11     3    36    1
    12     4    19    2
    13     5    21    1
    14     5    37    1
    15     6    26    1
    16     6    38    1
    17     7     8   ar
    18     7    39    1
    19     8    40    1
    20     9     7   ar
    21     9    41    1
    22    10     8   ar
    23    10    42    1
    24    11    12   ar
    25    11    43    1
    26    12    23   ar
    27    12    44    1
    28    13    18    1
    29    13    45    1
    30    13    46    1
    31    14    26    1
    32    14    16    1
    33    14    47    1
    34    14    48    1
    35    15    22    1
    36    15    49    1
    37    15    50    1
    38    16    27    1
    39    16    51    1
    40    17    24    1
    41    17    19   am
    42    17    52    1
    43    19    13    1
    44    20     9   ar
    45    20    22   ar
    46    21    11   ar
    47    21    24   ar
    48    22    10   ar
    49    23    26    1
    50    24    25   ar
    51    25    18    1
    52    25    23   ar
    53    26    53    1
    54    27     3    1
    55    27    15    1
