P0G
  Mrv15b2310062108292D          

 28 30  0  0  0  0            999 V2000
   -0.2747   -2.6217    0.0000 C   0  0  0  0  0  0  0  0  0  0  0  0
   -0.5767   -2.0987    0.0000 C   0  0  0  0  0  0  0  0  0  0  0  0
   -1.4017   -0.6697    0.0000 C   0  0  0  0  0  0  0  0  0  0  0  0
    3.2976    2.7408    0.0000 O   0  0  0  0  0  0  0  0  0  0  0  0
    0.4398    3.5658    0.0000 O   0  5  0  0  0  0  0  0  0  0  0  0
    1.1542   -0.1467    0.0000 O   0  0  0  0  0  0  0  0  0  0  0  0
   -1.7037   -4.2717    0.0000 C   0  0  0  0  0  0  0  0  0  0  0  0
   -2.4181   -3.8592    0.0000 C   0  0  0  0  0  0  0  0  0  0  0  0
   -0.9892   -3.8592    0.0000 C   0  0  0  0  0  0  0  0  0  0  0  0
   -2.4181   -3.0342    0.0000 C   0  0  0  0  0  0  0  0  0  0  0  0
   -0.2747    2.3283    0.0000 C   0  0  0  0  0  0  0  0  0  0  0  0
   -0.2747    1.5033    0.0000 C   0  0  0  0  0  0  0  0  0  0  0  0
    2.5832    1.5033    0.0000 C   0  0  0  0  0  0  0  0  0  0  0  0
   -0.2747   -0.1467    0.0000 C   0  0  0  0  0  0  0  0  0  0  0  0
   -1.7037   -1.7967    0.0000 C   0  0  0  0  0  0  0  0  0  0  0  0
   -0.2747   -0.9717    0.0000 N   0  0  0  0  0  0  0  0  0  0  0  0
    1.8687    2.7408    0.0000 N   0  0  0  0  0  0  0  0  0  0  0  0
    1.8687    1.0908    0.0000 O   0  0  0  0  0  0  0  0  0  0  0  0
    2.5832    2.3283    0.0000 C   0  0  0  0  0  0  0  0  0  0  0  0
   -0.9892   -3.0342    0.0000 C   0  0  0  0  0  0  0  0  0  0  0  0
    0.4398    2.7408    0.0000 C   0  0  0  0  0  0  0  0  0  0  0  0
   -1.7037   -2.6217    0.0000 C   0  0  0  0  0  0  0  0  0  0  0  0
    0.4398    1.0908    0.0000 C   0  0  0  0  0  0  0  0  0  0  0  0
    1.1542    2.3283    0.0000 C   0  0  0  0  0  0  0  0  0  0  0  0
    1.1542    1.5033    0.0000 C   0  0  0  0  0  0  0  0  0  0  0  0
    0.4398    0.2658    0.0000 C   0  0  1  0  0  0  0  0  0  0  0  0
   -0.9892   -1.3842    0.0000 C   0  0  0  0  0  0  0  0  0  0  0  0
    1.1542    3.9783    0.0000 H   0  0  0  0  0  0  0  0  0  0  0  0
  1 20  1  0  0  0  0
  2 27  1  0  0  0  0
  4 19  2  0  0  0  0
  5 21  1  0  0  0  0
  5 28  1  0  0  0  0
 26  6  1  1  0  0  0
  7  8  4  0  0  0  0
  9  7  4  0  0  0  0
 10  8  4  0  0  0  0
 11 12  4  0  0  0  0
 12 23  4  0  0  0  0
 13 18  1  0  0  0  0
 14 26  1  0  0  0  0
 14 16  1  0  0  0  0
 15 22  1  0  0  0  0
 16 27  1  0  0  0  0
 17 24  1  0  0  0  0
 17 19  1  0  0  0  0
 19 13  1  0  0  0  0
 20  9  4  0  0  0  0
 20 22  4  0  0  0  0
 21 11  4  0  0  0  0
 21 24  4  0  0  0  0
 22 10  4  0  0  0  0
 23 26  1  0  0  0  0
 24 25  4  0  0  0  0
 25 18  1  0  0  0  0
 25 23  4  0  0  0  0
 27  3  1  0  0  0  0
 27 15  1  0  0  0  0
M  CHG  1   5  -1
M  END
